Version 4
SHEET 1 4084 1156
WIRE 1936 -656 1920 -656
WIRE 1920 -592 1920 -656
WIRE 1792 -528 1632 -528
WIRE 2112 -528 2048 -528
WIRE 2256 -528 2112 -528
WIRE 2384 -528 2256 -528
WIRE 2496 -528 2384 -528
WIRE 2736 -528 2576 -528
WIRE 2112 -512 2112 -528
WIRE 2256 -512 2256 -528
WIRE 2384 -512 2384 -528
WIRE 1792 -432 1728 -432
WIRE 2112 -432 2048 -432
WIRE 1632 -416 1632 -528
WIRE 1728 -416 1728 -432
WIRE 2256 -416 2256 -448
WIRE 2384 -416 2384 -432
WIRE 2608 -368 2560 -368
WIRE 2736 -368 2736 -528
WIRE 2736 -368 2688 -368
WIRE 2560 -352 2560 -368
WIRE 304 -304 208 -304
WIRE 464 -304 304 -304
WIRE 1632 -304 1632 -336
WIRE 1728 -304 1728 -336
WIRE 208 -288 208 -304
WIRE 464 -288 464 -304
WIRE 2560 -256 2560 -272
WIRE 304 -240 304 -304
WIRE 320 -240 304 -240
WIRE 624 -240 608 -240
WIRE 704 -240 688 -240
WIRE 1024 -240 848 -240
WIRE 1104 -240 1024 -240
WIRE 1456 -240 1104 -240
WIRE 2192 -240 2160 -240
WIRE 2288 -240 2256 -240
WIRE 1024 -224 1024 -240
WIRE 208 -192 208 -208
WIRE 1456 -176 1456 -240
WIRE 1856 -176 1696 -176
WIRE 1920 -176 1920 -368
WIRE 1920 -176 1856 -176
WIRE 2160 -176 2160 -240
WIRE 2160 -176 1920 -176
WIRE 2288 -176 2288 -240
WIRE 2736 -176 2736 -368
WIRE 2736 -176 2288 -176
WIRE 2928 -176 2736 -176
WIRE 3120 -176 2928 -176
WIRE 3168 -176 3120 -176
WIRE 320 -144 304 -144
WIRE 640 -144 608 -144
WIRE 1920 -144 1920 -176
WIRE 640 -128 640 -144
WIRE 1024 -128 1024 -160
WIRE 2160 -128 2160 -176
WIRE 2192 -128 2160 -128
WIRE 2288 -128 2288 -176
WIRE 2288 -128 2256 -128
WIRE 2928 -112 2928 -176
WIRE 3168 -112 3168 -176
WIRE 640 -48 640 -64
WIRE 640 -48 608 -48
WIRE 688 -48 640 -48
WIRE 848 -48 848 -240
WIRE 848 -48 768 -48
WIRE 1920 -16 1920 -64
WIRE 2928 -16 2928 -48
WIRE 3168 -16 3168 -32
WIRE 240 48 208 48
WIRE 320 48 304 48
WIRE 688 48 608 48
WIRE 736 48 688 48
WIRE 848 48 848 -48
WIRE 848 48 800 48
WIRE 896 48 848 48
WIRE 1008 48 976 48
WIRE 1040 48 1008 48
WIRE 1232 48 1120 48
WIRE 1248 48 1232 48
WIRE 1392 80 1392 48
WIRE 1536 96 1536 48
WIRE 1568 96 1536 96
WIRE 1696 96 1696 -176
WIRE 1696 96 1648 96
WIRE 1248 112 1248 48
WIRE 848 128 848 48
WIRE 224 144 208 144
WIRE 320 144 304 144
WIRE 624 144 608 144
WIRE 1936 176 1920 176
WIRE 1952 176 1936 176
WIRE 1392 208 1392 160
WIRE 1696 208 1696 96
WIRE 1696 208 1392 208
WIRE 1248 224 1248 176
WIRE 848 240 848 208
WIRE 1920 240 1920 176
WIRE 1008 288 1008 48
WIRE 1008 288 912 288
WIRE 1792 304 1632 304
WIRE 2112 304 2048 304
WIRE 2256 304 2112 304
WIRE 2384 304 2256 304
WIRE 2496 304 2384 304
WIRE 2736 304 2736 -176
WIRE 2736 304 2576 304
WIRE 2112 320 2112 304
WIRE 2256 320 2256 304
WIRE 2384 320 2384 304
WIRE 688 352 688 48
WIRE 848 352 848 336
WIRE 848 352 688 352
WIRE 848 368 848 352
WIRE 1792 400 1728 400
WIRE 2112 400 2048 400
WIRE 1632 416 1632 304
WIRE 1728 416 1728 400
WIRE 2256 416 2256 384
WIRE 2384 416 2384 400
WIRE 848 496 848 448
WIRE 1632 528 1632 496
WIRE 1728 528 1728 496
WIRE 1920 528 1920 464
FLAG 208 144 0
FLAG 208 48 0
FLAG 208 -192 0
FLAG 704 -240 0
FLAG 1024 -128 0
FLAG 208 -304 IN
FLAG 624 144 0
FLAG 1728 -304 0
FLAG 1632 -304 0
FLAG 1920 -16 0
FLAG 2256 -416 0
FLAG 2384 -416 0
FLAG 2560 -256 0
FLAG 848 496 0
FLAG 1232 48 out
FLAG 1248 224 0
FLAG 1728 528 0
FLAG 1632 528 0
FLAG 2256 416 0
FLAG 2384 416 0
FLAG 1856 -176 set
FLAG 1920 528 set
FLAG 2928 -16 0
FLAG 3168 -16 0
FLAG 1104 -240 sw
FLAG 1936 176 sw
FLAG 1936 -656 sw
FLAG 3120 -176 out
SYMBOL res 320 128 R90
WINDOW 0 0 56 VBottom 2
WINDOW 3 32 56 VTop 2
SYMATTR InstName R1
SYMATTR Value 18.2K
SYMBOL cap 304 32 R90
WINDOW 0 0 32 VBottom 2
WINDOW 3 32 32 VTop 2
SYMATTR InstName C1
SYMATTR Value .001µ
SYMBOL voltage 208 -304 R0
SYMATTR InstName V1
SYMATTR Value 24
SYMBOL cap 624 -224 R270
WINDOW 0 32 32 VTop 2
WINDOW 3 0 32 VBottom 2
SYMATTR InstName C2
SYMATTR Value 1µ
SYMBOL ind 672 -32 R270
WINDOW 0 32 56 VTop 2
WINDOW 3 5 56 VBottom 2
SYMATTR InstName L1
SYMATTR Value 2.2µ
SYMATTR SpiceLine Rser=3m
SYMBOL cap 624 -128 R0
SYMATTR InstName C3
SYMATTR Value .1µ
SYMBOL cap 1008 -224 R0
SYMATTR InstName C4
SYMATTR Value 100µ
SYMATTR SpiceLine V=6.3 Irms=0 Rser=0.002 Lser=0
SYMBOL PowerProducts\\LT8609 464 -48 R0
SYMATTR InstName U1
SYMBOL PowerProducts\\LT3081 1920 -480 R0
SYMATTR InstName U2
SYMBOL res 1616 -432 R0
SYMATTR InstName R4
SYMATTR Value 1k
SYMBOL res 1712 -432 R0
SYMATTR InstName R5
SYMATTR Value 1k
SYMBOL res 1904 -160 R0
SYMATTR InstName R6
SYMATTR Value 4k
SYMBOL diode 2192 -224 R270
WINDOW 0 32 32 VTop 2
WINDOW 3 0 32 VBottom 2
SYMATTR InstName D1
SYMATTR Value 1N4148
SYMBOL res 2096 -528 R0
SYMATTR InstName R7
SYMATTR Value 10k
SYMBOL cap 2240 -512 R0
SYMATTR InstName C6
SYMATTR Value 30µF
SYMBOL res 2368 -528 R0
SYMATTR InstName R8
SYMATTR Value 10k
SYMBOL res 2592 -544 R90
WINDOW 0 0 56 VBottom 2
WINDOW 3 32 56 VTop 2
SYMATTR InstName R9
SYMATTR Value 10m
SYMBOL res 2704 -384 R90
WINDOW 0 0 56 VBottom 2
WINDOW 3 32 56 VTop 2
SYMATTR InstName R10
SYMATTR Value 10m
SYMBOL res 2576 -256 R180
WINDOW 0 36 76 Left 2
WINDOW 3 36 40 Left 2
SYMATTR InstName R11
SYMATTR Value 10k
SYMBOL res 832 352 R0
SYMATTR InstName R13
SYMATTR Value 4k
SYMBOL pnp 912 336 R180
SYMATTR InstName Q1
SYMATTR Value 2N3906
SYMBOL res 832 112 R0
SYMATTR InstName R14
SYMATTR Value 1k
SYMBOL res 992 32 R90
WINDOW 0 0 56 VBottom 2
WINDOW 3 32 56 VTop 2
SYMATTR InstName R15
SYMATTR Value 100k
SYMBOL res 1136 32 R90
WINDOW 0 0 56 VBottom 2
WINDOW 3 32 56 VTop 2
SYMATTR InstName R16
SYMATTR Value 100k
SYMBOL cap 800 32 R90
WINDOW 0 0 32 VBottom 2
WINDOW 3 32 32 VTop 2
SYMATTR InstName C5
SYMATTR Value 1nF
SYMBOL cap 1232 112 R0
SYMATTR InstName C8
SYMATTR Value 30µF
SYMBOL PowerProducts\\LT3081 1920 352 R0
SYMATTR InstName U3
SYMBOL res 1616 400 R0
SYMATTR InstName R2
SYMATTR Value 1k
SYMBOL res 1712 400 R0
SYMATTR InstName R3
SYMATTR Value 1k
SYMBOL res 2096 304 R0
SYMATTR InstName R18
SYMATTR Value 10k
SYMBOL cap 2240 320 R0
SYMATTR InstName C9
SYMATTR Value 30µF
SYMBOL res 2368 304 R0
SYMATTR InstName R19
SYMATTR Value 10k
SYMBOL res 2592 288 R90
WINDOW 0 0 56 VBottom 2
WINDOW 3 32 56 VTop 2
SYMATTR InstName R20
SYMATTR Value 10m
SYMBOL cap 2912 -112 R0
SYMATTR InstName C7
SYMATTR Value 40µF
SYMBOL res 3152 -128 R0
SYMATTR InstName R12
SYMATTR Value 4
SYMBOL PowerProducts\\LT3092 1456 -64 R0
SYMATTR InstName U4
SYMBOL res 1376 64 R0
SYMATTR InstName R17
SYMATTR Value 47.5K
SYMBOL res 1664 80 R90
WINDOW 0 0 56 VBottom 2
WINDOW 3 32 56 VTop 2
SYMATTR InstName R21
SYMATTR Value 200
SYMBOL diode 2256 -144 R90
WINDOW 0 0 32 VBottom 2
WINDOW 3 32 32 VTop 2
SYMATTR InstName D2
SYMATTR Value 1N4148
TEXT 312 264 Left 2 !.tran 500m startup
